Pyridoxal Phosphate
     RDKit          3D

 26 26  0  0  0  0  0  0  0  0999 V2000
   -0.6062   15.4243   75.0843 P   0  0  0  0  0  0  0  0  0  0  0  0
    0.8835   15.8778   75.4460 O   0  0  0  0  0  0  0  0  0  0  0  0
   -1.0384   18.7272   70.8759 O   0  0  0  0  0  0  0  0  0  0  0  0
   -1.4778   16.7300   75.3654 O   0  0  0  0  0  0  0  0  0  0  0  0
   -1.0087   14.4940   76.3132 O   0  0  0  0  0  0  0  0  0  0  0  0
    0.1224   19.9832   72.7815 O   0  0  0  0  0  0  0  0  0  0  0  0
   -0.8167   14.8109   73.7473 O   0  0  0  0  0  0  0  0  0  0  0  0
   -0.3552   15.1996   71.4063 N   0  0  0  0  0  0  0  0  0  0  0  0
    0.7836   16.4432   73.1518 C   0  0  0  0  0  0  0  0  0  0  0  0
    0.2916   17.6377   72.6022 C   0  0  0  0  0  0  0  0  0  0  0  0
    1.6543   16.3726   74.3705 C   0  0  0  0  0  0  0  0  0  0  0  0
   -0.5223   17.5997   71.4599 C   0  0  0  0  0  0  0  0  0  0  0  0
   -0.8222   16.3640   70.8932 C   0  0  0  0  0  0  0  0  0  0  0  0
    0.4275   15.2648   72.5046 C   0  0  0  0  0  0  0  0  0  0  0  0
   -1.6878   16.2649   69.6717 C   0  0  0  0  0  0  0  0  0  0  0  0
    0.6192   18.9462   73.2156 C   0  0  0  0  0  0  0  0  0  0  0  0
   -0.7208   19.5110   71.3802 H   0  0  0  0  0  0  0  0  0  0  0  0
   -2.4143   16.5805   75.1398 H   0  0  0  0  0  0  0  0  0  0  0  0
   -1.9416   14.2157   76.2660 H   0  0  0  0  0  0  0  0  0  0  0  0
    2.0413   17.3623   74.6382 H   0  0  0  0  0  0  0  0  0  0  0  0
    2.5160   15.7240   74.1761 H   0  0  0  0  0  0  0  0  0  0  0  0
    0.7716   14.2950   72.8588 H   0  0  0  0  0  0  0  0  0  0  0  0
   -2.6664   16.7169   69.8610 H   0  0  0  0  0  0  0  0  0  0  0  0
   -1.8476   15.2182   69.3929 H   0  0  0  0  0  0  0  0  0  0  0  0
   -1.2117   16.7704   68.8257 H   0  0  0  0  0  0  0  0  0  0  0  0
    1.3091   18.9720   74.0721 H   0  0  0  0  0  0  0  0  0  0  0  0
  1  2  1  0
  1  4  1  0
  1  5  1  0
  1  7  2  0
  2 11  1  0
  3 12  1  0
  6 16  2  0
  8 13  2  0
  8 14  1  0
  9 10  1  0
  9 11  1  0
  9 14  2  0
 10 12  2  0
 10 16  1  0
 12 13  1  0
 13 15  1  0
  3 17  1  0
  4 18  1  0
  5 19  1  0
 11 20  1  0
 11 21  1  0
 14 22  1  0
 15 23  1  0
 15 24  1  0
 15 25  1  0
 16 26  1  0
M  END
